LTspice 24.1.9 for Windows
Circuit: C:\Users\admin\Documents\LTspice\RP2040-MiniPill-Breakout-Board\RP2040-MiniPill-Breakout-Board.net
Start Time: Wed Oct  1 20:16:13 2025
solver = Normal
Maximum thread count: 4
tnom = 27
temp = 27
method = trap
gmin = 1e-09
abstol = 1e-09
dd1: Emission coefficient, N=0.001, too small, this might lead to numerical problems.
dd1: Emission coefficient, N=0.001, too small, this might lead to numerical problems.
dd1: Emission coefficient, N=0.001, too small, this might lead to numerical problems.
dd1: Emission coefficient, N=0.001, too small, this might lead to numerical problems.
dd1: Emission coefficient, N=0.001, too small, this might lead to numerical problems.
dd1: Emission coefficient, N=0.001, too small, this might lead to numerical problems.
Direct Newton iteration for .op point succeeded.
Changing Tseed to 1e-08
Total elapsed time: 0.534 seconds.

Files loaded:
C:\Users\admin\Documents\LTspice\RP2040-MiniPill-Breakout-Board\RP2040-MiniPill-Breakout-Board.net
C:\Users\admin\Documents\LTspice\RP2040-MiniPill-Breakout-Board\lib\sub\TPS3700_TRANS.lib
C:\Users\admin\Documents\LTspice\RP2040-MiniPill-Breakout-Board\lib\sub\irlml6402.lib
C:\Users\admin\Documents\LTspice\RP2040-MiniPill-Breakout-Board\lib\sub\irlml2502.lib
C:\Users\admin\AppData\Local\LTspice\lib\sub\Contrib\Toshiba\LVMOS\T2N7002BK_G0_00_enc.lib
C:\Users\admin\AppData\Local\LTspice\lib\sub\Contrib\Toshiba\pmos\SSM6J503NU.lib

